%%%%%%%%%%%%%%%%%%%%%%%%%%%%%%%%%%%%%%%%%%%%%%%%%%%%%%%%%%%%%%%%%%%%%%%%%%%%%%%%
%                                                                              %
% SU2 configuration file                                                       %
% Case description: Annular ORCHID turbine stator vane                         %
% Author: E.C.Bunschoten   	                                                   %
% Institution: Delft University of Technology                                  %
% Date: May, 2025                                                              %
% File Version 8.3.0 "Harrier                                                  %
%                                                                              %
%%%%%%%%%%%%%%%%%%%%%%%%%%%%%%%%%%%%%%%%%%%%%%%%%%%%%%%%%%%%%%%%%%%%%%%%%%%%%%%%
%
%
%
%
% ------------- DIRECT, ADJOINT, AND LINEARIZED PROBLEM DEFINITION ------------%
%
% Physical governing equations (EULER, NAVIER_STOKES)                         
SOLVER= RANS
%
% Specify turbulent model (NONE, SA, SA_NEG, SST)
KIND_TURB_MODEL= SA
%
% Specify versions/corrections of the SA model (NEGATIVE, EDWARDS, WITHFT2, QCR2000, COMPRESSIBILITY, ROTATION, BCM, EXPERIMENTAL)
SA_OPTIONS= NONE
%


%
%
% -------------------- COMPRESSIBLE FREE-STREAM DEFINITION --------------------%
%
% Mach number (non-dimensional, based on the free-stream values)
MACH_NUMBER= 0.05
%
% Angle of attack (degrees, only for compressible flows)
AoA= 0.0
%
% Free-stream pressure (101325.0 N/m^2 by default, only Euler flows)  
FREESTREAM_PRESSURE= 1.8093e+06
%
% Free-stream temperature (273.15 K by default)
FREESTREAM_TEMPERATURE= 523
%
% Free-stream density (1.2886 Kg/m3 by default)
FREESTREAM_DENSITY= 126
%
% Free-stream Turbulence Intensity
FREESTREAM_TURBULENCEINTENSITY = 0.1
%
% Free-stream Turbulent to Laminar viscosity ratio
FREESTREAM_TURB2LAMVISCRATIO = 100.0
%
% Free-stream option to choose if you want to use Density (DENSITY_FS) or Temperature (TEMPERATURE_FS) to initialize the solution
FREESTREAM_OPTION= TEMPERATURE_FS
%
%Init option to choose between Reynolds (default) or thermodynamics quantities for initializing the solution (REYNOLDS, TD_CONDITIONS)
INIT_OPTION= TD_CONDITIONS
%
%
%
% ---------------------- REFERENCE VALUE DEFINITION ---------------------------%
%
%Flow non-dimensionalization (DIMENSIONAL, FREESTREAM_PRESS_EQ_ONE,FREESTREAM_VEL_EQ_MACH, FREESTREAM_VEL_EQ_ONE)
REF_DIMENSIONALIZATION= DIMENSIONAL
%
%
%
% --------------------------------- FLUID MODEL -----------------------------------%
%
% Different gas model (STANDARD_AIR, IDEAL_GAS, VW_GAS, PR_GAS, COOLPROP)
FLUID_MODEL= DATADRIVEN_FLUID
USE_PINN=YES
INTERPOLATION_METHOD = MLP
FILENAMES_INTERPOLATOR = (MLP_PINN.mlp)
DATADRIVEN_NEWTON_RELAXATION = 1.0
% DATADRIVEN_INITIAL_DENSITY=62.0
% DATADRIVEN_INITIAL_ENERGY=3.7e5


% Ratio of specific heats (1.4 default and the value is hardcoded for the model STANDARD_AIR)
GAMMA_VALUE= 1.025
%
% Specific gas constant (287.058 J/kg*K default and this value is hardcoded for the model STANDARD_AIR)
GAS_CONSTANT= 51.2
%
% Critical Temperature (273.15 K by default)
CRITICAL_TEMPERATURE= 518.75
%
% Critical Pressure (101325.0 N/m^2 by default)
CRITICAL_PRESSURE= 1939000.0
%
% Acentric factor (0.035 (air))
ACENTRIC_FACTOR= 0.418
%
%
%
%
% --------------------------- VISCOSITY MODEL ---------------------------------%
%
% Viscosity model (SUTHERLAND, CONSTANT_VISCOSITY).
VISCOSITY_MODEL= CONSTANT_VISCOSITY
%
% Molecular Viscosity that would be constant (1.716E-5 by default)
MU_CONSTANT= 1.1616248692182084e-05
%
% Sutherland Viscosity Ref (1.716E-5 default value for AIR SI)
MU_REF= 1.716E-5
%
% Sutherland Temperature Ref (273.15 K default value for AIR SI)
MU_T_REF= 273.15
%
% Sutherland constant (110.4 default value for AIR SI)
SUTHERLAND_CONSTANT= 110.4
%
%
%
%
% --------------------------- THERMAL CONDUCTIVITY MODEL ----------------------%
%
% Conductivity model (CONSTANT_CONDUCTIVITY, CONSTANT_PRANDTL).
CONDUCTIVITY_MODEL= CONSTANT_PRANDTL 
PRANDTL_LAM=1.2297874884638853
TURBULENT_CONDUCTIVITY_MODEL=CONSTANT_PRANDTL_TURB
PRANDTL_TURB=1.2297874884638853

%
% Molecular Thermal Conductivity that would be constant (0.0257 by default)
THERMAL_CONDUCTIVITY_CONSTANT= 0.086
%
%
%
%
%
% -------------------- BOUNDARY CONDITION DEFINITION --------------------------%
%
% Navier-Stokes wall boundary marker(s) (NONE = no marker)
MARKER_HEATFLUX= (wall, 0.0)
%
% Non reflecting boundary marker
% Format inlet:  ( marker, TOTAL_CONDITIONS_PT, Total Pressure, Total Temperature, Flow dir-x, Flow dir-y, Flow dir-z)
% Format outlet: ( marker, type, STATIC_PRESSURE, Static Pressure, 0.0, 0.0, 0.0, 0.0)
MARKER_GILES= (inflow, TOTAL_CONDITIONS_PT, 1.8093e+06, 523, 1.0, 0.0, 0.0, 0.8, 0.8, outflow, STATIC_PRESSURE,2e5, 0.0, 0.0, 0.0, 0.0, 0.8, 0.8)
%MARKER_RIEMANN= (inflow, TOTAL_CONDITIONS_PT, 1.8093e+06, 573, 1.0, 0.0, 0.0, outflow, STATIC_PRESSURE, 5e5, 0.0, 0.0, 0.0, 0.0)
SPATIAL_FOURIER=NO
%
% Kind of Average (ALGEBRAIC_AVERAGE, AREA_AVERAGE, MIXEDOUT_AVERAGE)
AVERAGE_PROCESS_KIND= MASSFLUX
MIXEDOUT_COEFF=(0.1, 1e-5, 15.0)
TURBOMACHINERY_KIND= CENTRIPETAL
TURBO_PERF_KIND=TURBINE
NUM_SPANWISE_SECTIONS= 1
% Specify ramp option for Outlet pressure (YES, NO) default NO
RAMP_OUTLET= YES
%
% Parameters of the outlet pressure ramp (starting outlet pressure, updating-iteration-frequency, total number of iteration for the ramp)
RAMP_OUTLET_COEFF= (1.8093e+06, 10, 1000)
%
% Periodic boundary marker(s) (NONE = no marker)
% Format: ( periodic marker, donor marker, rot_cen_x, rot_cen_y, rot_cen_z, rot_angle_x-axis, rot_angle_y-axis, rot_angle_z-axis, translation_x, translation_y, translation_z)
MARKER_PERIODIC= (periodic1, periodic2, 0.0, 0.0, 0.0, 0.0, 0.0, 30.0, 0.0, 0.0, 0.0)
%
%
%
% ------------------------ SURFACES IDENTIFICATION ----------------------------%
%
% Marker(s) of the surface in the surface flow solution file
MARKER_PLOTTING= (wall)
%
% Marker(s) of the surface where the non-dimensional coefficients are evaluated
MARKER_MONITORING= (wall)
%
% Marker(s) between turbomachinery performance are evaluated. Use BLADE for single blade, STAGE for stage and TURBINE for a multi-stage.
MARKER_TURBOMACHINERY= (inflow, outflow)
%
DV_MARKER=(wall)

%
%
% ------------- COMMON PARAMETERS DEFINING THE NUMERICAL METHOD ---------------%
%
% Numerical method for spatial gradients (GREEN_GAUSS, WEIGHTED_LEAST_SQUARES)
NUM_METHOD_GRAD= WEIGHTED_LEAST_SQUARES
%
% Courant-Friedrichs-Lewy condition of the finest grid
CFL_NUMBER= 4
%
% Adaptive CFL number (NO, YES)
CFL_ADAPT= YES
%
% Parameters of the adaptive CFL number (factor down, factor up, CFL min value, CFL max value )
CFL_ADAPT_PARAM= ( 0.99, 1.01, 1.0, 1000.0)
%
%
%
%
% ------------------------ LINEAR SOLVER DEFINITION ---------------------------%
%
% Linear solver or smoother for implicit formulations (BCGSTAB, FGMRES, SMOOTHER_JACOBI, SMOOTHER_ILU0, SMOOTHER_LUSGS, SMOOTHER_LINELET)
LINEAR_SOLVER= FGMRES
%
%
% Min error of the linear solver for the implicit formulation
LINEAR_SOLVER_ERROR= 1E-3
%
% Max number of iterations of the linear solver for the implicit formulation
LINEAR_SOLVER_ITER= 15
%
%
%
%
% -------------------------- MULTIGRID PARAMETERS -----------------------------%
%
% Multi-Grid Levels (0 = no multi-grid)
MGLEVEL= 0
%
% Multigrid pre-smoothing level
MG_PRE_SMOOTH= ( 1, 2, 3, 3 )
%
% Multigrid post-smoothing level
MG_POST_SMOOTH= ( 0, 0, 0, 0 )
%
% Jacobi implicit smoothing of the correction
MG_CORRECTION_SMOOTH= ( 0, 0, 0, 0 )
%
% Damping factor for the residual restriction
MG_DAMP_RESTRICTION= 0.75
%
% Damping factor for the correction prolongation
MG_DAMP_PROLONGATION= 0.75
%
%
% -------------------- FLOW NUMERICAL METHOD DEFINITION -----------------------%
%
% Convective numerical method (JST, ROE, AUSM, HLLC)
CONV_NUM_METHOD_FLOW= ROE
%
% Spatial numerical order integration (1ST_ORDER, 2ND_ORDER, 2ND_ORDER_LIMITER)
MUSCL_FLOW= NO
%
% Entropy fix coefficient (0.0 implies no entropy fixing, 1.0 implies scalar artificial dissipation, 0.001 default)
ENTROPY_FIX_COEFF= 0.001
%
% 1st, 2nd and 4th order artificial dissipation coefficients
JST_SENSOR_COEFF= ( 0.5, 0.12 )
%
% Slope limiter (VENKATAKRISHNAN, BARTH_JESPERSEN, VAN_ALBADA)
SLOPE_LIMITER_FLOW= VENKATAKRISHNAN
VENKAT_LIMITER_COEFF=0.5

%
% Time discretization (RUNGE-KUTTA_EXPLICIT, EULER_IMPLICIT, EULER_EXPLICIT)
TIME_DISCRE_FLOW= EULER_IMPLICIT
%
%
%
% -------------------- TURBULENT NUMERICAL METHOD DEFINITION ------------------%
%
% Convective numerical method (SCALAR_UPWIND)
CONV_NUM_METHOD_TURB= SCALAR_UPWIND
%
% Spatial numerical order integration (1ST_ORDER, 2ND_ORDER, 2ND_ORDER_LIMITER)
MUSCL_TURB = NO
%
% Slope limiter (VENKATAKRISHNAN)
SLOPE_LIMITER_TURB= VENKATAKRISHNAN
%
% Time discretization (EULER_IMPLICIT)
TIME_DISCRE_TURB= EULER_IMPLICIT
%
% Reduction factor of the CFL coefficient in the turbulence problem
CFL_REDUCTION_TURB= 0.01
%
%
%
% --------------------------- CONVERGENCE PARAMETERS --------------------------%
% Maximum number of inner iterations
ITER=3000

% Min value of the residual (log10 of the residual)
CONV_RESIDUAL_MINVAL= -16
%
% Start Cauchy criteria at iteration number
CONV_STARTITER= 10
%
% Number of elements to apply the criteria
CONV_CAUCHY_ELEMS= 100
%
% Epsilon to control the series convergence
CONV_CAUCHY_EPS= 1E-6
%
%
%
% ------------------------- INPUT/OUTPUT INFORMATION --------------------------%

% Restart solution (NO, YES)
RESTART_SOL=NO
% Mesh input file
MESH_FILENAME= su2mesh.su2
MESH_OUT_FILENAME= mesh_deformed.su2

% Mesh input file format (SU2, CGNS, NETCDF_ASCII)
MESH_FORMAT= SU2
%
%
% Output tabular format (CSV, TECPLOT)
TABULAR_FORMAT= CSV
%
% Output file convergence history (w/o extension) 
%CONV_FILENAME= history_singleMLP_rrr
%
%__ADJOINT__CONV_FILENAME= history_adjoint_JST
CONV_FILENAME= history_direct_ROE
% Output file restart flow
RESTART_FILENAME= restart_ROE.dat
SOLUTION_FILENAME= solution_ROE.dat
%
% Output file restart adjoint
RESTART_ADJ_FILENAME= restart_adj.dat
%
% Output file flow (w/o extension) variables
VOLUME_FILENAME= vol_solution_ROE

%
% Output file adjoint (w/o extension) variables
VOLUME_ADJ_FILENAME= adjoint
%
% Output Objective function gradient (using continuous adjoint)
GRAD_OBJFUNC_FILENAME= of_grad.dat
%
% Output file surface flow coefficient (w/o extension)
SURFACE_FILENAME= surface_flow
%
% Output file surface adjoint coefficient (w/o extension)
SURFACE_ADJ_FILENAME= surface_adjoint
%
% Writing solution file frequency
OUTPUT_WRT_FREQ= 100
%
% Writing frequency for history output
HISTORY_WRT_FREQ_INNER= 1
%
% Screen output fields (use 'SU2_CFD -d <config_file>' to view list of available fields)
SCREEN_OUTPUT= (INNER_ITER, RMS_RES, LINSOL)
HISTORY_OUTPUT= (INNER_ITER, WALL_TIME, RMS_RES,CUSTOM,LINSOL,CFL_NUMBER,TURBO_PERF)
VOLUME_OUTPUT= (SOLUTION, PRIMITIVE, RESIDUAL, MPI,SENSITIVITY,MESH_QUALITY)
OUTPUT_FILES=(RESTART,PARAVIEW_MULTIBLOCK)

CUSTOM_OUTPUTS= 'velocity : Macro{sqrt(pow(VELOCITY_X, 2) + pow(VELOCITY_Y, 2))};\
                 avg_vel : AreaAvg{$velocity}[outflow];\
                 var_vel : AreaAvg{pow($velocity - avg_vel, 2)}[outflow];\
                 dev_vel : Function{sqrt(var_vel) / avg_vel};'
CUSTOM_OBJFUNC= 'dev_vel'
OBJECTIVE_FUNCTION=CUSTOM_OBJFUNC


% ------------------------ GRID DEFORMATION PARAMETERS ------------------------%
%
% Linear solver or smoother for implicit formulations (FGMRES, RESTARTED_FGMRES, BCGSTAB)
DEFORM_LINEAR_SOLVER= FGMRES
%
% Preconditioner of the Krylov linear solver (ILU, LU_SGS, JACOBI)
DEFORM_LINEAR_SOLVER_PREC= ILU
%
% Number of smoothing iterations for mesh deformation
DEFORM_LINEAR_SOLVER_ITER= 1000
%
% Number of nonlinear deformation iterations (surface deformation increments)
DEFORM_NONLINEAR_ITER= 1
%
% Minimum residual criteria for the linear solver convergence of grid deformation
DEFORM_LINEAR_SOLVER_ERROR= 1E-14
%
% Print the residuals during mesh deformation to the console (YES, NO)
DEFORM_CONSOLE_OUTPUT= YES
%
% Deformation coefficient (linear elasticity limits from -1.0 to 0.5, a larger
% value is also possible)
DEFORM_COEFF = 0.0
%
% Type of element stiffness imposed for FEA mesh deformation (INVERSE_VOLUME,
%                                           WALL_DISTANCE, CONSTANT_STIFFNESS)
DEFORM_STIFFNESS_TYPE= WALL_DISTANCE
%
% Deform the grid only close to the surface. It is possible to specify how much
% of the volumetric grid is going to be deformed in meters or inches (1E6 by default)
DEFORM_LIMIT = 1E6
